// SYNTAX TEST "OpenDSS.sublime-syntax"
// OpenDSSManual.pdf, Command Reference page 69
//<- punctuation.definition.comment.opendss
//^^^ comment.line.opendss

/* comment out the next two monitors
//<- punctuation.definition.comment.begin.opendss
// ^^^^ comment.block.opendss
****/ End of block comment
// ^^ punctuation.definition.comment.end.opendss
//   ^^^^ comment.block.opendss


New line.line4 linecode=336acsr length=2.0 ! this is an in-line comment
//                                         ^ punctuation.definition.comment.opendss
//                                          ^^^ comment.line.opendss



? XYCurve.MyPvsT.Y
//<- punctuation.query.opendss
// ^^^^ string.unquoted.opendss


New line.line4 linecode=336acsr
More length=2.0
//^ punctuation.more.opendss


New XYCurve.MyEff npts=4 xarray=[.1 .2 .4 1.0] yarray=[.86 .9 .93 .97]
//<- punctuation.new.opendss

Var @Input=MyBus1
//<- punctuation.var.opendss
//  ^^^^string.unquoted.opendss

var @varname1
//<- punctuation.var.opendss

Clear
Connect
_DoControlActions




New test=[1]
New test=[1,2,3]

New test='1,2,3'
//       ^punctuation.group.single.begin
//             ^punctuation.group.single.end

New test="1,2,3"
//       ^punctuation.group.double.begin
//             ^punctuation.group.double.end

New test={1,2,3}
//       ^punctuation.group.braces.begin
//             ^punctuation.group.braces.end

New test=(1,2,3 | 4, 5, 6 | 7, 8, 9)
//       ^ punctuation.group.parens.begin
//                                 ^ punctuation.group.parens.end

New test=[file=abcd.csv, Column=0, Header=Yes]
New test=[dblfile=abcd.dbl]
New test=[sngfile=abcd.sng]

New test=[1 2 3]

