// SYNTAX TEST "OpenDSS.sublime-syntax"

/*
   Comments
*/

// OpenDSSManual.pdf, Command Reference page 69
//<- punctuation.definition.comment.opendss
//^^^ comment.line.opendss

/* comment out the next two monitors
//<- punctuation.definition.comment.begin.opendss
// ^^^^ comment.block.opendss
****/ End of block comment
// ^^ punctuation.definition.comment.end.opendss
//   ^^^^ comment.block.opendss


New line.line4 linecode=336acsr length=2.0 ! this is an in-line comment
//                                         ^ punctuation.definition.comment.opendss
//                                          ^^^ comment.line.opendss

/*
   Variables
*/

Var @Input=MyBus1
//<- keyword.var.opendss
//  ^ punctuation.definition.variable.opendss
//   ^^ variable.opendss
//        ^ keyword.operator.opendss
//^^^^^^^^^^^^^^^ meta.var.opendss

Var @Input=MyBus1  @Output=test
//^ keyword.var.opendss
//                 ^ punctuation.definition.variable.opendss
//                  ^^ variable.opendss

var @varname1
//<- keyword.var.opendss
//  ^ punctuation.definition.variable.opendss
//   ^^ entity.name.variable.opendss

var
//<- keyword.var.opendss

New Reactor.@Jumper^1 Phases=1 Bus1=@Input.4 Bus2=@Input.23 R=0 X=0.01
//                                  ^ punctuation.definition.variable.opendss
//                                        ^ punctuation.definition.variable.opendss

/*
   Commands
*/

Clear
//<- keyword.command.opendss
Connect
//<- keyword.command.opendss
_DoControlActions
//<- punctuation.keyword.opendss
// ^ keyword.command.opendss

Redirect IEEELinecodes.DSS
// ^ keyword.command.opendss
//         ^ string.unquoted.opendss
//         ^ entity.name.file.opendss
//      ^ meta.filecommand.opendss

Compile "C:\Users\prdu001\DSSData\CDR\Master3.DSS"

About abcd ! test
// ^ keyword.command.opendss
//     ^ invalid.illegal.opendss
//           ^ comment.line.opendss

/*
   New, more, query
*/

? XYCurve.MyPvsT.Y
//<- punctuation.query.opendss
// ^^^^ string.unquoted.opendss

New line.line4 linecode=336acsr
More length=2.0
//^ keyword.more.opendss

New XYCurve.MyEff npts=4 xarray=[.1 .2 .4 1.0] yarray=[.86 .9 .93 .97]
//<- keyword.new.opendss

/*
   Basic arrays
*/

New abc test=[1]
//           ^punctuation.group.brackets.begin
//             ^punctuation.group.brackets.end

New abc test=[1,2,3]
//           ^punctuation.group.brackets.begin
//                 ^punctuation.group.brackets.end

New abc test='1,2,3'
//           ^punctuation.group.single.begin
//                 ^punctuation.group.single.end

New abc test="1,2,3"
//           ^punctuation.group.double.begin
//                 ^punctuation.group.double.end

New abc test={1,2,3}
//           ^punctuation.group.braces.begin
//                 ^punctuation.group.braces.end

New abc test=(1,2,3 | 4, 5, 6 | 7, 8, 9)
//           ^ punctuation.group.parens.begin
//                                     ^ punctuation.group.parens.end

/*
   Positional parameters
*/

new object=circuit.DSSLLibtestckt
~ basekv=115 1.00 0.0 60.0 3 20000 21000 4.0 3.0 !edit the voltage source
//<- keyword.more.opendss
//            ^ constant.numeric.opendss
//            ^ meta.edit.opendss
//                                                  ^ comment.line.opendss

/*
   RPN
*/

New test.abc kvs="24.9 sqrt"
//                    ^ meta.rpn.opendss
//                 ^ constant.numeric.opendss

New test.abc kvs=("24.9 -")
//                    ^ meta.rpn.opendss
//                 ^ constant.numeric.opendss

New test.abc kvs=("24.9 sqrt 10 +")
//                    ^ meta.rpn.opendss
//                 ^ constant.numeric.opendss

New Transformer.t kvs=("24.9 3 sqrt /" "10 2 *") test=(14.4 13.8 / sqr 300 *)
//                             ^ meta.rpn.opendss
//                                  ^ keyword.operator.opendss
//                                                          ^ meta.rpn.opendss

New Transformer.@TR^A Xfmrcode=333KVA Buses=[@Input.1.4 @Output.1.0 @Input.7.0]


New Transformer.XFM1  Phases=3   Windings=2 Xhl=2.72
~ wdg=1 bus=61s       conn=Delta kv=4.16    kva=150    %r=0.635


/*
   Setting properties
*/

Line.TransmissionLine1.R1
//<- storage.type.opendss
// ^ meta.set-value.opendss
//  ^ punctuation.accessor.opendss

Spectrum.DefaultLoad.NumHarm=1   ! This effectively gets rid of LOAD harmonics
// ^ meta.set-value.opendss
//                          ^ keyword.operator.opendss

Capacitor.C1.kvar = [(14.4 13.8 / sqr 300 *), (14.4 13.8 / sqr 300 *)]
//<- storage.type.opendss
// ^ meta.set-value.opendss
//         ^ entity.name.object.opendss
//                ^ keyword.operator.opendss
//                      ^ meta.rpn.opendss

line.L1.X1 = (2 pi * 60 * .001 *)
//<- storage.type.opendss
//    ^ entity.name.object.opendss
//         ^ keyword.operator.opendss
//             ^ meta.set-value.opendss
//              ^ constant.language.opendss

XYCurve.MyPvsT.Yscale=0.5 X=75
//                        ^ entity.name.object.opendss
//                         ^ keyword.operator.opendss
//                          ^ meta.set-value.opendss

/*
  Objects, object names
*/

new object=circuit.DSSLLibtestckt abc
//  ^ variable.function.opendss
//  ^ entity.name.param.opendss
//        ^ keyword.operator.opendss
//          ^ storage.type.opendss
//          ^ meta.object.opendss
//                ^ punctuation.accessor.opendss
//                    ^ entity.name.object.opendss

NEW object = line_test.1 @abc
//  ^ variable.function.opendss
//  ^ entity.name.param.opendss
//         ^ keyword.operator.opendss
//           ^ meta.object.opendss
//           ^ entity.name.object.opendss

New Xfmrcode.333KVA phases=1 Windings=3 ppm=0
//  ^ storage.type.opendss
//          ^ punctuation.accessor.opendss
//            ^ entity.name.object.opendss

New Abc.500KVA phase=1 Winding=3 ppm=0
//   ^ entity.name.object.opendss
///    ^ punctuation.accessor.opendss

New Transformer.@Bridge^A Xfmrcode=Auto Buses=[@Input.8.23 @Input.23.9]
//  ^ storage.type.opendss
//              ^punctuation.definition.variable.opendss
//               ^ variable.opendss
//                     ^ punctuation.accessor.opendss

New linecode.1 nphases=3 BaseFreq=60
//  ^ storage.type.opendss
//          ^ punctuation.accessor.opendss
//           ^ entity.name.object.opendss

New "Line.First Line", b1240 32 336acsr
//    ^ storage.type.opendss
//       ^ punctuation.accessor.opendss
//           ^ entity.name.object.opendss

Edit "LoadShape.PVLoadShape2" npts=86400 sinterval=1 mult=(File=LoadshapePV2.csv)
//    ^ storage.type.opendss
//             ^ punctuation.accessor.opendss
//              ^ entity.name.object.opendss

Edit line.@abcd.1 a=1
//    ^ storage.type.opendss
//       ^ punctuation.accessor.opendss
//        ^punctuation.definition.variable.opendss
//         ^ variable.opendss
//           ^ entity.name.object.opendss
//             ^ punctuation.accessor.opendss

New @abcd.1 a=1
//  ^punctuation.definition.variable.opendss
//    ^ variable.opendss
//      ^ entity.name.object.opendss
//       ^ punctuation.accessor.opendss

/*
   Special array cases
*/

New object=abc test=[file=abcd.csv, Column=0, Header=Yes]
New abc test=[dblfile=abcd.dbl]
New abc test=[sngfile=abcd.sng]
New abc %test=[1 2 3]
